LIG
     RDKit          3D

 26 26  0  0  0  0  0  0  0  0999 V2000
    3.1019    1.7692   -2.3175 C   0  0  0  0  0  0  0  0  0  0  0  0
    1.0399    2.5892   -0.6475 C   0  0  0  0  0  0  0  0  0  0  0  0
   -0.1181   -2.9478    1.5425 C   0  0  0  0  0  0  0  0  0  0  0  0
   -1.5181   -1.7918    1.4425 S   0  0  1  0  0  6  0  0  0  0  0  0
   -2.8061   -2.4688    1.6065 O   0  0  0  0  0  0  0  0  0  0  0  0
   -1.5591   -0.8938    2.5865 O   0  0  0  0  0  0  0  0  0  0  0  0
   -1.5041   -0.9478   -0.0335 N   0  0  0  0  0  0  0  0  0  0  0  0
   -0.2471   -0.4848   -0.5705 C   0  0  0  0  0  0  0  0  0  0  0  0
   -0.4351    0.7242   -1.4765 C   0  0  0  0  0  0  0  0  0  0  0  0
    0.8739    1.4992   -1.4865 C   0  0  0  0  0  0  0  0  0  0  0  0
    1.9019    1.0882   -2.3175 C   0  0  0  0  0  0  0  0  0  0  0  0
    3.2759    2.8652   -1.4855 C   0  0  0  0  0  0  0  0  0  0  0  0
    2.2429    3.2802   -0.6515 C   0  0  0  0  0  0  0  0  0  0  0  0
    3.9199    1.4432   -2.9768 H   0  0  0  0  0  0  0  0  0  0  0  0
    0.2227    2.9048    0.0178 H   0  0  0  0  0  0  0  0  0  0  0  0
    0.1202   -3.1446    2.5982 H   0  0  0  0  0  0  0  0  0  0  0  0
   -0.3857   -3.8916    1.0449 H   0  0  0  0  0  0  0  0  0  0  0  0
    0.7581   -2.5065    1.0449 H   0  0  0  0  0  0  0  0  0  0  0  0
   -1.9214   -1.5707   -0.7398 H   0  0  0  0  0  0  0  0  0  0  0  0
    0.4160   -0.2071    0.2621 H   0  0  0  0  0  0  0  0  0  0  0  0
    0.1914   -1.2974   -1.1683 H   0  0  0  0  0  0  0  0  0  0  0  0
   -0.6833    0.3940   -2.4960 H   0  0  0  0  0  0  0  0  0  0  0  0
   -1.2564    1.3576   -1.1101 H   0  0  0  0  0  0  0  0  0  0  0  0
    1.7622    0.2193   -2.9774 H   0  0  0  0  0  0  0  0  0  0  0  0
    4.2330    3.4075   -1.4852 H   0  0  0  0  0  0  0  0  0  0  0  0
    2.3794    4.1537    0.0030 H   0  0  0  0  0  0  0  0  0  0  0  0
  1 11  2  0
  1 12  1  0
  4  3  1  0
  4  5  2  0
  4  6  2  0
  4  7  1  6
  8  7  1  0
  9  8  1  0
 10  9  1  0
 10  2  2  0
 11 10  1  0
 12 13  2  0
 13  2  1  0
  1 14  1  0
  2 15  1  0
  3 16  1  0
  3 17  1  0
  3 18  1  0
  7 19  1  0
  8 20  1  0
  8 21  1  0
  9 22  1  0
  9 23  1  0
 11 24  1  0
 12 25  1  0
 13 26  1  0
M  END
$$$$
